./RUNtwolf ../../benchmarks/sim-outorder ../spec2000benchmarks/twolf00.peak.ev6 -bpred 2lev -bpred:2lev 512 2048 2 0 -max:inst 500000000 -fastfwd 200000000 > "twolf_2lev_512_2048_2_0.txt" 2>&1

./RUNtwolf ../../benchmarks/sim-outorder ../spec2000benchmarks/twolf00.peak.ev6 -bpred 2lev -bpred:2lev 512 8336 4 0 -max:inst 500000000 -fastfwd 200000000 > "twolf_2lev_512_8336_4_0.txt" 2>&1

./RUNtwolf ../../benchmarks/sim-outorder ../spec2000benchmarks/twolf00.peak.ev6 -bpred 2lev -bpred:2lev 512 33344 6 0 -max:inst 500000000 -fastfwd 200000000 > "twolf_2lev_512_33344_6_0.txt" 2>&1

./RUNtwolf ../../benchmarks/sim-outorder ../spec2000benchmarks/twolf00.peak.ev6 -bpred 2lev -bpred:2lev 512 524288 10 0 -max:inst 500000000 -fastfwd 200000000 > "twolf_2lev_512_524288_10_0.txt" 2>&1

./RUNtwolf ../../benchmarks/sim-outorder ../spec2000benchmarks/twolf00.peak.ev6 -bpred 2lev -bpred:2lev 512 8388608 14 0 -max:inst 500000000 -fastfwd 200000000 > "twolf_2lev_512_8388608_14_0.txt" 2>&1

./RUNtwolf ../../benchmarks/sim-outorder ../spec2000benchmarks/twolf00.peak.ev6 -bpred 2lev -bpred:2lev 512 134217728 18 0 -max:inst 500000000 -fastfwd 200000000 > "twolf_2lev_512_134217728_18_0.txt" 2>&1

./RUNtwolf ../../benchmarks/sim-outorder ../spec2000benchmarks/twolf00.peak.ev6 -bpred 2lev -bpred:2lev 512 2048 2 1 -max:inst 500000000 -fastfwd 200000000 > "twolf_2lev_512_2048_2_1.txt" 2>&1

./RUNtwolf ../../benchmarks/sim-outorder ../spec2000benchmarks/twolf00.peak.ev6 -bpred 2lev -bpred:2lev 512 8336 4 1 -max:inst 500000000 -fastfwd 200000000 > "twolf_2lev_512_8336_4_1.txt" 2>&1

./RUNtwolf ../../benchmarks/sim-outorder ../spec2000benchmarks/twolf00.peak.ev6 -bpred 2lev -bpred:2lev 512 33344 6 1 -max:inst 500000000 -fastfwd 200000000 > "twolf_2lev_512_33344_6_1.txt" 2>&1

./RUNtwolf ../../benchmarks/sim-outorder ../spec2000benchmarks/twolf00.peak.ev6 -bpred 2lev -bpred:2lev 512 524288 10 1 -max:inst 500000000 -fastfwd 200000000 > "twolf_2lev_512_524288_10_1.txt" 2>&1

./RUNtwolf ../../benchmarks/sim-outorder ../spec2000benchmarks/twolf00.peak.ev6 -bpred 2lev -bpred:2lev 512 8388608 14 1 -max:inst 500000000 -fastfwd 200000000 > "twolf_2lev_512_8388608_14_1.txt" 2>&1

./RUNtwolf ../../benchmarks/sim-outorder ../spec2000benchmarks/twolf00.peak.ev6 -bpred 2lev -bpred:2lev 512 134217728 18 1 -max:inst 500000000 -fastfwd 200000000 > "twolf_2lev_512_134217728_18_1.txt" 2>&1
