./RUNtwolf ../../benchmarks/sim-outorder ../spec2000benchmarks/twolf00.peak.ev6 -bpred 2lev -bpred:2lev 1 16 4 1 -max:inst 50000000 -fastfwd 20000000 > "twolf_2lev_1_16_4_1.txt" 2>&1

./RUNtwolf ../../benchmarks/sim-outorder ../spec2000benchmarks/twolf00.peak.ev6 -bpred 2lev -bpred:2lev 1 256 8 1 -max:inst 50000000 -fastfwd 20000000 > "twolf_2lev_1_256_8_1.txt" 2>&1

./RUNtwolf ../../benchmarks/sim-outorder ../spec2000benchmarks/twolf00.peak.ev6 -bpred 2lev -bpred:2lev 1 2 1 1 -max:inst 50000000 -fastfwd 20000000 > "twolf_2lev_1_2_1_1.txt" 2>&1

./RUNtwolf ../../benchmarks/sim-outorder ../spec2000benchmarks/twolf00.peak.ev6 -bpred 2lev -bpred:2lev 1 4 2 1 -max:inst 50000000 -fastfwd 20000000 > "twolf_2lev_1_4_2_1.txt" 2>&1

./RUNtwolf ../../benchmarks/sim-outorder ../spec2000benchmarks/twolf00.peak.ev6 -bpred 2lev -bpred:2lev 1 65536 16 1 -max:inst 50000000 -fastfwd 20000000 > "twolf_2lev_1_65536_16_1.txt" 2>&1

./RUNtwolf ../../benchmarks/sim-outorder ../spec2000benchmarks/twolf00.peak.ev6 -bpred 2lev -bpred:2lev 512 1024 1 1 -max:inst 50000000 -fastfwd 20000000 > "twolf_2lev_512_1024_1_1.txt" 2>&1

./RUNtwolf ../../benchmarks/sim-outorder ../spec2000benchmarks/twolf00.peak.ev6 -bpred 2lev -bpred:2lev 512 131072 8 1 -max:inst 50000000 -fastfwd 20000000 > "twolf_2lev_512_131072_8_1.txt" 2>&1

./RUNtwolf ../../benchmarks/sim-outorder ../spec2000benchmarks/twolf00.peak.ev6 -bpred 2lev -bpred:2lev 512 16 4 1 -max:inst 50000000 -fastfwd 20000000 > "twolf_2lev_512_16_4_1.txt" 2>&1

./RUNtwolf ../../benchmarks/sim-outorder ../spec2000benchmarks/twolf00.peak.ev6 -bpred 2lev -bpred:2lev 512 2048 2 1 -max:inst 50000000 -fastfwd 20000000 > "twolf_2lev_512_2048_2_1.txt" 2>&1

./RUNtwolf ../../benchmarks/sim-outorder ../spec2000benchmarks/twolf00.peak.ev6 -bpred 2lev -bpred:2lev 512 256 8 1 -max:inst 50000000 -fastfwd 20000000 > "twolf_2lev_512_256_8_1.txt" 2>&1

./RUNtwolf ../../benchmarks/sim-outorder ../spec2000benchmarks/twolf00.peak.ev6 -bpred 2lev -bpred:2lev 512 2 1 1 -max:inst 50000000 -fastfwd 20000000 > "twolf_2lev_512_2_1_1.txt" 2>&1

./RUNtwolf ../../benchmarks/sim-outorder ../spec2000benchmarks/twolf00.peak.ev6 -bpred 2lev -bpred:2lev 512 33554432 16 1 -max:inst 50000000 -fastfwd 20000000 > "twolf_2lev_512_33554432_16_1.txt" 2>&1

./RUNtwolf ../../benchmarks/sim-outorder ../spec2000benchmarks/twolf00.peak.ev6 -bpred 2lev -bpred:2lev 512 4 2 1 -max:inst 50000000 -fastfwd 20000000 > "twolf_2lev_512_4_2_1.txt" 2>&1

./RUNtwolf ../../benchmarks/sim-outorder ../spec2000benchmarks/twolf00.peak.ev6 -bpred 2lev -bpred:2lev 512 65536 16 1 -max:inst 50000000 -fastfwd 20000000 > "twolf_2lev_512_65536_16_1.txt" 2>&1

./RUNtwolf ../../benchmarks/sim-outorder ../spec2000benchmarks/twolf00.peak.ev6 -bpred 2lev -bpred:2lev 512 8192 4 1 -max:inst 50000000 -fastfwd 20000000 > "twolf_2lev_512_8192_4_1.txt" 2>&1