sim-outorder: SimpleScalar/Alpha Tool Set version 3.0 of August, 2003.
Copyright (c) 1994-2003 by Todd M. Austin, Ph.D. and SimpleScalar, LLC.
All Rights Reserved. This version of SimpleScalar is licensed for academic
non-commercial use.  No portion of this work may be used by any commercial
entity, or for any commercial purpose, without the prior written permission
of SimpleScalar, LLC (info@simplescalar.com).

warning: section `.comment' ignored...
sim: command line: ../../benchmarks/sim-outorder -bpred 2lev -bpred:2lev 512 524288 10 0 -max:inst 500000000 -fastfwd 200000000 ../spec2000benchmarks/gcc00.peak.ev6 gcc.lgred.cp-decl.i -o gcc.cp-decl.s 

sim: simulation started @ Tue Nov 17 23:04:23 2015, options follow:

sim-outorder: This simulator implements a very detailed out-of-order issue
superscalar processor with a two-level memory system and speculative
execution support.  This simulator is a performance simulator, tracking the
latency of all pipeline operations.

# -config                     # load configuration from a file
# -dumpconfig                 # dump configuration to a file
# -h                    false # print help message    
# -v                    false # verbose operation     
# -d                    false # enable debug message  
# -i                    false # start in Dlite debugger
-seed                       1 # random number generator seed (0 for timer seed)
# -q                    false # initialize and terminate immediately
# -chkpt               <null> # restore EIO trace execution from <fname>
# -redir:sim           <null> # redirect simulator output to file (non-interactive only)
# -redir:prog          <null> # redirect simulated program output to file
-nice                       0 # simulator scheduling priority
-max:inst           500000000 # maximum number of inst's to execute
-fastfwd            200000000 # number of insts skipped before timing starts
# -ptrace              <null> # generate pipetrace, i.e., <fname|stdout|stderr> <range>
-fetch:ifqsize              4 # instruction fetch queue size (in insts)
-fetch:mplat                3 # extra branch mis-prediction latency
-fetch:speed                1 # speed of front-end of machine relative to execution core
-bpred                   2lev # branch predictor type {nottaken|taken|perfect|bimod|2lev|comb|perceptron}
-bpred:bimod     2048 # bimodal predictor config (<table size>)
-bpred:2lev      512 524288 10 0 # 2-level predictor config (<l1size> <l2size> <hist_size> <xor>)
-bpred:comb      1024 # combining predictor config (<meta_table_size>)
-bpred:perceptron 512 8 8 # perceptron predictor config (<weight_table_size> <weight_bits> <hist_table_size> <hist_length>)
-bpred:ras                  8 # return address stack size (0 for no return stack)
-bpred:btb       512 4 # BTB config (<num_sets> <associativity>)
# -bpred:spec_update       <null> # speculative predictors update in {ID|WB} (default non-spec)
-decode:width               4 # instruction decode B/W (insts/cycle)
-issue:width                4 # instruction issue B/W (insts/cycle)
-issue:inorder          false # run pipeline with in-order issue
-issue:wrongpath         true # issue instructions down wrong execution paths
-commit:width               4 # instruction commit B/W (insts/cycle)
-ruu:size                  16 # register update unit (RUU) size
-lsq:size                   8 # load/store queue (LSQ) size
-cache:dl1       dl1:128:32:4:l # l1 data cache config, i.e., {<config>|none}
-cache:dl1lat               1 # l1 data cache hit latency (in cycles)
-cache:dl2       ul2:1024:64:4:l # l2 data cache config, i.e., {<config>|none}
-cache:dl2lat               6 # l2 data cache hit latency (in cycles)
-cache:il1       il1:512:32:1:l # l1 inst cache config, i.e., {<config>|dl1|dl2|none}
-cache:il1lat               1 # l1 instruction cache hit latency (in cycles)
-cache:il2                dl2 # l2 instruction cache config, i.e., {<config>|dl2|none}
-cache:il2lat               6 # l2 instruction cache hit latency (in cycles)
-cache:flush            false # flush caches on system calls
-cache:icompress        false # convert 64-bit inst addresses to 32-bit inst equivalents
-mem:lat         18 2 # memory access latency (<first_chunk> <inter_chunk>)
-mem:width                  8 # memory access bus width (in bytes)
-tlb:itlb        itlb:16:4096:4:l # instruction TLB config, i.e., {<config>|none}
-tlb:dtlb        dtlb:32:4096:4:l # data TLB config, i.e., {<config>|none}
-tlb:lat                   30 # inst/data TLB miss latency (in cycles)
-res:ialu                   4 # total number of integer ALU's available
-res:imult                  1 # total number of integer multiplier/dividers available
-res:memport                2 # total number of memory system ports available (to CPU)
-res:fpalu                  4 # total number of floating point ALU's available
-res:fpmult                 1 # total number of floating point multiplier/dividers available
# -pcstat              <null> # profile stat(s) against text addr's (mult uses ok)
-bugcompat              false # operate in backward-compatible bugs mode (for testing only)

  Pipetrace range arguments are formatted as follows:

    {{@|#}<start>}:{{@|#|+}<end>}

  Both ends of the range are optional, if neither are specified, the entire
  execution is traced.  Ranges that start with a `@' designate an address
  range to be traced, those that start with an `#' designate a cycle count
  range.  All other range values represent an instruction count range.  The
  second argument, if specified with a `+', indicates a value relative
  to the first argument, e.g., 1000:+100 == 1000:1100.  Program symbols may
  be used in all contexts.

    Examples:   -ptrace FOO.trc #0:#1000
                -ptrace BAR.trc @2000:
                -ptrace BLAH.trc :1500
                -ptrace UXXE.trc :
                -ptrace FOOBAR.trc @main:+278

  Branch predictor configuration examples for 2-level predictor:
    Configurations:   N, M, W, X
      N   # entries in first level (# of shift register(s))
      W   width of shift register(s)
      M   # entries in 2nd level (# of counters, or other FSM)
      X   (yes-1/no-0) xor history and address for 2nd level index
    Sample predictors:
      GAg     : 1, W, 2^W, 0
      GAp     : 1, W, M (M > 2^W), 0
      PAg     : N, W, 2^W, 0
      PAp     : N, W, M (M == 2^(N+W)), 0
      gshare  : 1, W, 2^W, 1
  Predictor `comb' combines a bimodal and a 2-level predictor.

  The cache config parameter <config> has the following format:

    <name>:<nsets>:<bsize>:<assoc>:<repl>

    <name>   - name of the cache being defined
    <nsets>  - number of sets in the cache
    <bsize>  - block size of the cache
    <assoc>  - associativity of the cache
    <repl>   - block replacement strategy, 'l'-LRU, 'f'-FIFO, 'r'-random

    Examples:   -cache:dl1 dl1:4096:32:1:l
                -dtlb dtlb:128:4096:32:r

  Cache levels can be unified by pointing a level of the instruction cache
  hierarchy at the data cache hiearchy using the "dl1" and "dl2" cache
  configuration arguments.  Most sensible combinations are supported, e.g.,

    A unified l2 cache (il2 is pointed at dl2):
      -cache:il1 il1:128:64:1:l -cache:il2 dl2
      -cache:dl1 dl1:256:32:1:l -cache:dl2 ul2:1024:64:2:l

    Or, a fully unified cache hierarchy (il1 pointed at dl1):
      -cache:il1 dl1
      -cache:dl1 ul1:256:32:1:l -cache:dl2 ul2:1024:64:2:l



sim: ** fast forwarding 200000000 insts **
warning: partially supported sigaction() call...
 push_decl_level pop_decl_level push_binding_level pop_binding_level global_bindings_p keep_next_level kept_level_p declare_parm_level declare_implicit_exception have_exceptions_p declare_uninstantiated_type_level uninstantiated_type_level_p declare_pseudo_global_level pseudo_global_level_p pushlevel pushlevel_temporary poplevel delete_block insert_block add_block_current_level set_block pushlevel_class poplevel_class print_binding_level print_other_binding_stack print_binding_stacksim: ** starting performance simulation **
 push_to_top_level pop_from_top_level set_identifier_type_value set_identifier_local_value set_nested_typename pushtag make_anon_name clear_anon_tags decls_match duplicate_decls adjust_type_value pushdecl pushdecl_top_level push_overloaded_decl_top_level pushdecl_class_level overloaded_globals_p push_overloaded_decl implicitly_declare redeclaration_error_message lookup_label shadow_label define_label define_case_label getdecls gettags storedecls storetags lookup_tag set_current_level_tags_transparency lookup_tag_reverse typedecl_for_tag globalize_nested_type maybe_globalize_type lookup_nested_type lookup_name lookup_name_current_level sigsegv record_builtin_type output_builtin_tdesc_entries push_overloaded_decl_1 init_decl_processing
sim: ** simulation statistics **
sim_num_insn              500000000 # total number of instructions committed
sim_num_refs              219346265 # total number of loads and stores committed
sim_num_loads             164531592 # total number of loads committed
sim_num_stores         54814673.0000 # total number of stores committed
sim_num_branches           78908199 # total number of branches committed
sim_elapsed_time                397 # total simulation time in seconds
sim_inst_rate          1259445.8438 # simulation speed (in insts/sec)
sim_total_insn            558866028 # total number of instructions executed
sim_total_refs            247157042 # total number of loads and stores executed
sim_total_loads           189091341 # total number of loads executed
sim_total_stores       58065701.0000 # total number of stores executed
sim_total_branches         87664617 # total number of branches executed
sim_cycle                 388271819 # total simulation time in cycles
sim_IPC                      1.2878 # instructions per cycle
sim_CPI                      0.7765 # cycles per instruction
sim_exec_BW                  1.4394 # total instructions (mis-spec + committed) per cycle
sim_IPB                      6.3365 # instruction per branch
IFQ_count                 884559431 # cumulative IFQ occupancy
IFQ_fcount                198397552 # cumulative IFQ full count
ifq_occupancy                2.2782 # avg IFQ occupancy (insn's)
ifq_rate                     1.4394 # avg IFQ dispatch rate (insn/cycle)
ifq_latency                  1.5828 # avg IFQ occupant latency (cycle's)
ifq_full                     0.5110 # fraction of time (cycle's) IFQ was full
RUU_count                3216703021 # cumulative RUU occupancy
RUU_fcount                 68703709 # cumulative RUU full count
ruu_occupancy                8.2847 # avg RUU occupancy (insn's)
ruu_rate                     1.4394 # avg RUU dispatch rate (insn/cycle)
ruu_latency                  5.7558 # avg RUU occupant latency (cycle's)
ruu_full                     0.1769 # fraction of time (cycle's) RUU was full
LSQ_count                1437973725 # cumulative LSQ occupancy
LSQ_fcount                 71362638 # cumulative LSQ full count
lsq_occupancy                3.7035 # avg LSQ occupancy (insn's)
lsq_rate                     1.4394 # avg LSQ dispatch rate (insn/cycle)
lsq_latency                  2.5730 # avg LSQ occupant latency (cycle's)
lsq_full                     0.1838 # fraction of time (cycle's) LSQ was full
sim_slip                 5013511783 # total number of slip cycles
avg_sim_slip                10.0270 # the average slip between issue and retirement
bpred_2lev.lookups         91101783 # total number of bpred lookups
bpred_2lev.updates         78908198 # total number of updates
bpred_2lev.addr_hits       69095302 # total number of address-predicted hits
bpred_2lev.dir_hits        71362044 # total number of direction-predicted hits (includes addr-hits)
bpred_2lev.misses           7546154 # total number of misses
bpred_2lev.jr_hits          6492618 # total number of address-predicted hits for JR's
bpred_2lev.jr_seen          8113974 # total number of JR's seen
bpred_2lev.jr_non_ras_hits.PP       926499 # total number of address-predicted hits for non-RAS JR's
bpred_2lev.jr_non_ras_seen.PP      2394650 # total number of non-RAS JR's seen
bpred_2lev.bpred_addr_rate    0.8756 # branch address-prediction rate (i.e., addr-hits/updates)
bpred_2lev.bpred_dir_rate    0.9044 # branch direction-prediction rate (i.e., all-hits/updates)
bpred_2lev.bpred_jr_rate    0.8002 # JR address-prediction rate (i.e., JR addr-hits/JRs seen)
bpred_2lev.bpred_jr_non_ras_rate.PP    0.3869 # non-RAS JR addr-pred rate (ie, non-RAS JR hits/JRs seen)
bpred_2lev.retstack_pushes      6941554 # total number of address pushed onto ret-addr stack
bpred_2lev.retstack_pops      6568300 # total number of address popped off of ret-addr stack
bpred_2lev.used_ras.PP      5719324 # total number of RAS predictions used
bpred_2lev.ras_hits.PP      5566119 # total number of RAS hits
bpred_2lev.ras_rate.PP    0.9732 # RAS prediction rate (i.e., RAS hits/used RAS)
il1.accesses              597267284 # total number of accesses
il1.hits                  578318519 # total number of hits
il1.misses                 18948765 # total number of misses
il1.replacements           18948253 # total number of replacements
il1.writebacks                    0 # total number of writebacks
il1.invalidations                 0 # total number of invalidations
il1.miss_rate                0.0317 # miss rate (i.e., misses/ref)
il1.repl_rate                0.0317 # replacement rate (i.e., repls/ref)
il1.wb_rate                  0.0000 # writeback rate (i.e., wrbks/ref)
il1.inv_rate                 0.0000 # invalidation rate (i.e., invs/ref)
dl1.accesses              229516658 # total number of accesses
dl1.hits                  224591168 # total number of hits
dl1.misses                  4925490 # total number of misses
dl1.replacements            4924978 # total number of replacements
dl1.writebacks              1750004 # total number of writebacks
dl1.invalidations                 0 # total number of invalidations
dl1.miss_rate                0.0215 # miss rate (i.e., misses/ref)
dl1.repl_rate                0.0215 # replacement rate (i.e., repls/ref)
dl1.wb_rate                  0.0076 # writeback rate (i.e., wrbks/ref)
dl1.inv_rate                 0.0000 # invalidation rate (i.e., invs/ref)
ul2.accesses               25624259 # total number of accesses
ul2.hits                   24524910 # total number of hits
ul2.misses                  1099349 # total number of misses
ul2.replacements            1095253 # total number of replacements
ul2.writebacks               250850 # total number of writebacks
ul2.invalidations                 0 # total number of invalidations
ul2.miss_rate                0.0429 # miss rate (i.e., misses/ref)
ul2.repl_rate                0.0427 # replacement rate (i.e., repls/ref)
ul2.wb_rate                  0.0098 # writeback rate (i.e., wrbks/ref)
ul2.inv_rate                 0.0000 # invalidation rate (i.e., invs/ref)
itlb.accesses             597267284 # total number of accesses
itlb.hits                 597128394 # total number of hits
itlb.misses                  138890 # total number of misses
itlb.replacements            138826 # total number of replacements
itlb.writebacks                   0 # total number of writebacks
itlb.invalidations                0 # total number of invalidations
itlb.miss_rate               0.0002 # miss rate (i.e., misses/ref)
itlb.repl_rate               0.0002 # replacement rate (i.e., repls/ref)
itlb.wb_rate                 0.0000 # writeback rate (i.e., wrbks/ref)
itlb.inv_rate                0.0000 # invalidation rate (i.e., invs/ref)
dtlb.accesses             230421671 # total number of accesses
dtlb.hits                 230355825 # total number of hits
dtlb.misses                   65846 # total number of misses
dtlb.replacements             65718 # total number of replacements
dtlb.writebacks                   0 # total number of writebacks
dtlb.invalidations                0 # total number of invalidations
dtlb.miss_rate               0.0003 # miss rate (i.e., misses/ref)
dtlb.repl_rate               0.0003 # replacement rate (i.e., repls/ref)
dtlb.wb_rate                 0.0000 # writeback rate (i.e., wrbks/ref)
dtlb.inv_rate                0.0000 # invalidation rate (i.e., invs/ref)
sim_invalid_addrs                 0 # total non-speculative bogus addresses seen (debug var)
ld_text_base           0x0120000000 # program text (code) segment base
ld_text_size                1990656 # program text (code) size in bytes
ld_data_base           0x0140000000 # program initialized data segment base
ld_data_size                 306320 # program init'ed `.data' and uninit'ed `.bss' size in bytes
ld_stack_base          0x011ff9b000 # program stack segment base (highest address in stack)
ld_stack_size                 16384 # program initial stack size
ld_prog_entry          0x012002e530 # program entry point (initial PC)
ld_environ_base        0x011ff97000 # program environment base address address
ld_target_big_endian              0 # target executable endian-ness, non-zero if big endian
mem.page_count                  994 # total number of pages allocated
mem.page_mem                  7952k # total size of memory pages allocated
mem.ptab_misses             1506255 # total first level page table misses
mem.ptab_accesses        5890188488 # total page table accesses
mem.ptab_miss_rate           0.0003 # first level page table miss rate

